Circuit: * D:\Spice\tg_fa.asc

WARNING: Node NC_01 is floating.
WARNING: Node NC_02 is floating.
WARNING: Node NC_03 is floating.
WARNING: Node NC_04 is floating.
WARNING: Node NC_05 is floating.
WARNING: Node NC_06 is floating.
WARNING: Node NC_07 is floating.
WARNING: Node NC_08 is floating.

Direct Newton iteration for .op point succeeded.
Heightened Def Con from 5 +++++++++++++++++++to 5
Heightened Def Con from 5 +++++++++++++++to 5
Heightened Def Con from 5 +++++to 5

Date: Mon May 25 06:12:00 2020
Total elapsed time: 0.094 seconds.

tnom = 27
temp = 27
method = modified trap
totiter = 5052
traniter = 5021
tranpoints = 859
accept = 573
rejected = 328
matrix size = 34
fillins = 2
solver = Normal
Matrix Compiler1: 2.32 KB object code size  0.5/0.3/[0.1]
Matrix Compiler2: off  [0.3]/0.4/0.4

