Circuit: * Z:\mnt\6E34E0213B8F22D4\Projects\Spice\5t_ota.asc

Instance "m5": Length shorter than recommended for a level 1 MOSFET.
Instance "m5": Width narrower than recommended for a level 1 MOSFET.
Instance "m4": Length shorter than recommended for a level 1 MOSFET.
Instance "m4": Width narrower than recommended for a level 1 MOSFET.
Instance "m2": Length shorter than recommended for a level 1 MOSFET.
Instance "m2": Width narrower than recommended for a level 1 MOSFET.
Instance "m3": Length shorter than recommended for a level 1 MOSFET.
Instance "m3": Width narrower than recommended for a level 1 MOSFET.
Instance "m1": Length shorter than recommended for a level 1 MOSFET.
Instance "m1": Width narrower than recommended for a level 1 MOSFET.
Direct Newton iteration for .op point succeeded.

Date: Thu Jul 08 01:24:39 2021
Total elapsed time: 0.101 seconds.

tnom = 27
temp = 27
method = modified trap
totiter = 2042
traniter = 2036
tranpoints = 1019
accept = 1018
rejected = 1
matrix size = 11
fillins = 0
solver = Normal
Matrix Compiler1: 458 bytes object code size  0.2/0.1/[0.1]
Matrix Compiler2: 841 bytes object code size  0.1/0.2/[0.1]

