Circuit: * Z:\mnt\6E34E0213B8F22D4\Projects\Spice\audio_modulation.asc

WARNING: Less than two connections to node NC_02.  This node is used by S:U1:1.
Instance "m:u2:6": Length shorter than recommended for a level 2 MOSFET.
Instance "m:u2:5": Length shorter than recommended for a level 2 MOSFET.
Direct Newton iteration for .op point succeeded.

Date: Fri Dec 04 20:21:16 2020
Total elapsed time: 3.993 seconds.

tnom = 27
temp = 27
method = modified trap
totiter = 242182
traniter = 242152
tranpoints = 108155
accept = 106158
rejected = 1997
matrix size = 50
fillins = 18
solver = Normal
Matrix Compiler1: 2.51 KB object code size  0.6/0.3/[0.2]
Matrix Compiler2: 4.06 KB object code size  0.4/0.5/[0.4]

