Circuit: * Z:\mnt\6E34E0213B8F22D4\Projects\Spice\buck.asc

WARNING: Less than two connections to node N008.  This node is used by R14.
Direct Newton iteration for .op point succeeded.

Date: Thu Apr 22 23:33:00 2021
Total elapsed time: 1.179 seconds.

tnom = 27
temp = 27
method = modified trap
totiter = 35938
traniter = 35917
tranpoints = 10634
accept = 7383
rejected = 3251
matrix size = 40
fillins = 21
solver = Normal
Thread vector: 45.6/18.4[5] 20.6/7.9[5] 12.2/5.3[5] 0.4/2.4[1]  2592/500
Matrix Compiler1: 3.60 KB object code size  3.0/2.5/[1.1]
Matrix Compiler2: 4.29 KB object code size  2.1/3.5/[0.5]

