Circuit: * Z:\mnt\6E34E0213B8F22D4\Projects\Spice\Draft5.asc

Direct Newton iteration for .op point succeeded.

Date: Sun Apr 18 14:36:57 2021
Total elapsed time: 0.112 seconds.

tnom = 27
temp = 27
method = modified trap
totiter = 2052
traniter = 2048
tranpoints = 1025
accept = 1025
rejected = 0
matrix size = 3
fillins = 0
solver = Normal
Matrix Compiler1: off  [0.0]/0.0/0.0
Matrix Compiler2: 175 bytes object code size  0.0/0.1/[0.0]

