Circuit: * Z:\mnt\6E34E0213B8F22D4\Projects\Spice\Draft7.asc

Limiting rise time of source v2 to 0.1
Limiting fall time of source v2 to 0.1
Direct Newton iteration for .op point succeeded.

Date: Thu Dec 16 02:47:36 2021
Total elapsed time: 0.086 seconds.

tnom = 27
temp = 27
method = modified trap
totiter = 812
traniter = 803
tranpoints = 261
accept = 231
rejected = 30
matrix size = 12
fillins = 0
solver = Normal
Matrix Compiler1: 1.04 KB object code size  0.3/0.2/[0.1]
Matrix Compiler2: 1.26 KB object code size  0.2/0.2/[0.1]

