Circuit: * Z:\mnt\6E34E0213B8F22D4\Projects\Spice\Draft2.asc

WARNING: Less than two connections to node NC_02.  This node is used by S:U1:1.
Direct Newton iteration for .op point succeeded.

Date: Fri Dec 04 17:02:14 2020
Total elapsed time: 0.585 seconds.

tnom = 27
temp = 27
method = modified trap
totiter = 97011
traniter = 96990
tranpoints = 25376
accept = 19467
rejected = 5909
matrix size = 20
fillins = 0
solver = Normal
Matrix Compiler1: 652 bytes object code size  0.2/0.1/[0.1]
Matrix Compiler2: 1.35 KB object code size  0.2/0.2/[0.2]

