Circuit: * Z:\mnt\6E34E0213B8F22D4\Projects\Spice\Draft6.asc

Direct Newton iteration for .op point succeeded.

Date: Wed Apr 21 18:20:33 2021
Total elapsed time: 0.099 seconds.

tnom = 27
temp = 27
method = modified trap
totiter = 300
traniter = 296
tranpoints = 143
accept = 139
rejected = 4
matrix size = 5
fillins = 0
solver = Normal
Matrix Compiler1:       7 opcodes  0.1/[0.0]/0.0
Matrix Compiler2: 301 bytes object code size  0.1/0.1/[0.0]

