Circuit: * Z:\mnt\6E34E0213B8F22D4\Projects\Spice\mux4to1pass.asc

Limiting rise time of source v8 to 0.2
Limiting fall time of source v8 to 0.2
Limiting rise time of source v7 to 0.15
Limiting fall time of source v7 to 0.15
Limiting rise time of source v6 to 0.1
Limiting fall time of source v6 to 0.1
Limiting rise time of source v5 to 0.05
Limiting fall time of source v5 to 0.05
Direct Newton iteration for .op point succeeded.

Date: Fri Apr 23 10:30:04 2021
Total elapsed time: 0.114 seconds.

tnom = 27
temp = 27
method = modified trap
totiter = 1141
traniter = 1126
tranpoints = 553
accept = 522
rejected = 31
matrix size = 19
fillins = 2
solver = Normal
Matrix Compiler1: 1.32 KB object code size  0.3/0.2/[0.1]
Matrix Compiler2: 2.12 KB object code size  0.2/0.2/[0.2]

