Circuit: * D:\Projects\Spice\ov_lipo_bms.asc

WARNING: Node NC_02 is floating.

WARNING: Less than two connections to node NC_01.  This node is used by M1.
Instance "m:u3:6": Length shorter than recommended for a level 2 MOSFET.
Instance "m:u3:5": Length shorter than recommended for a level 2 MOSFET.
Instance "m:u1:6": Length shorter than recommended for a level 2 MOSFET.
Instance "m:u1:5": Length shorter than recommended for a level 2 MOSFET.
Direct Newton iteration failed to find .op point.  (Use ".option noopiter" to skip.)
Starting Gmin stepping
Gmin = 10
Gmin = 1.07374
Gmin = 0.115292
Gmin = 0.0123794
Gmin = 0.00132923
Gmin = 0.000142725
Gmin = 1.5325e-005
Gmin = 1.6455e-006
Gmin = 1.76685e-007
Gmin = 1.89714e-008
Gmin = 2.03704e-009
Gmin = 2.18725e-010
Gmin = 2.34854e-011
Gmin = 2.52173e-012
Gmin = 2.70769e-013
Gmin = 0
Gmin stepping succeeded in finding the operating point.

Heightened Def Con from 1.36823e-005 to 1.36833e-005

Date: Sun Mar 28 01:38:36 2021
Total elapsed time: 13.482 seconds.

tnom = 27
temp = 27
method = modified trap
totiter = 301339
traniter = 300934
tranpoints = 150229
accept = 150177
rejected = 53
matrix size = 86
fillins = 49
solver = Normal
Thread vector: 9.0/6.3[2] 2.4/2.7[1] 3.9/3.6[1] 0.3/1.2[1]  2592/500
Matrix Compiler1: 6.39 KB object code size  1.3/0.8/[0.3]
Matrix Compiler2: 8.14 KB object code size  1.1/1.4/[0.4]

