Circuit: * Z:\mnt\6E34E0213B8F22D4\Projects\Spice\servo_esc_driver.asc

Direct Newton iteration for .op point succeeded.

Date: Fri Dec 04 19:46:22 2020
Total elapsed time: 23.165 seconds.

tnom = 27
temp = 27
method = modified trap
totiter = 1098628
traniter = 1098612
tranpoints = 545720
accept = 544769
rejected = 951
matrix size = 16
fillins = 0
solver = Normal
Matrix Compiler1: 564 bytes object code size  0.2/0.1/[0.1]
Matrix Compiler2: off  [0.1]/0.2/0.1

